/*--------------------------------*- C++ -*----------------------------------*\
  =========                |
  \      /  F ield         | OpenFOAM: The Open Source CFD Toolbox
   \    /   O peration     | Website:  https://openfoam.org
    \  /    A nd           | Version:  7
     \/     M anipulation  |
\*---------------------------------------------------------------------------*/
FoamFile
{
    version     2.0;
    format      ascii;
    class       volScalarField;
    location    "0";
    object      B;
}
// * * * * * * * * * * * * * * * * * * * * * * * * * * * * * * * * * * * * * //

dimensions      [0 -3 0 0 1 0 0];

internalField   uniform 10;

boundaryField
{
    hole
    {
        type            zeroGradient;
    }

    up
    {
        type            zeroGradient;
    }
	right
    {
        type            zeroGradient;
    }
	
    down
    {
        type            symmetryPlane;
    }
	left
    {
        type            symmetryPlane;
    }
    
	frontAndBack
	{
        type            empty;
    }
}

// ************************************************************************* //
