/*--------------------------------*- C++ -*----------------------------------*\
  =========                 |
  \\      /  F ield         | OpenFOAM: The Open Source CFD Toolbox
   \\    /   O peration     | Website:  https://openfoam.org
    \\  /    A nd           | Version:  7
     \\/     M anipulation  |
\*---------------------------------------------------------------------------*/
FoamFile
{
    version     2.0;
    format      ascii;
    class       dictionary;
	location    "system";
    object      blockMeshDict;
}
// * * * * * * * * * * * * * * * * * * * * * * * * * * * * * * * * * * * * * //

convertToMeters 1e-2;

vertices
(
    (0.5 0 0)					//0
    (2 0 0)						//1
    (2 2 0)						//2
	(0 2 0)						//3
	(0 0.5 0)					//4
    (0.353553 0.353553 0)		//5
    (0.5 0 0.1)					//6
    (2 0 0.1)					//7
	(2 2 0.1)					//8	
    (0 2 0.1)					//9
    (0 0.5 0.1)					//10
    (0.353553 0.353553 0.1)		//11
	
	(1.272792 1.272792 0)		//12
    (1.272792 1.272792 0.1)		//13
	
    (0 1.8 0)					//14
    (1.8 0 0)					//15
	
	(0 1.8 0.1)					//16
    (1.8 0 0.1)					//17
	
	(1.272792 2 0)				//18
    (2 1.272792 0)				//19
	(1.272792 2 0.1)			//20
    (2 1.272792 0.1)			//21
);

blocks
(
    hex (5 12 14 4 11 13 16 10) (140 100 1) simpleGrading (1 1 1)
    hex (0 15 12 5 6 17 13 11) (140 100 1) simpleGrading (1 1 1)
	
	hex (1 19 12 15 7 21 13 17) (100 57 1) simpleGrading (1 1 1)
    hex (12 18 3 14 13 20 9 16) (57 100 1) simpleGrading (1 1 1)
	hex (12 19 2 18 13 21 8 20) (57 57 1) simpleGrading (1 1 1)
);

edges
(
    arc 0 5 (0.469846 0.17101 0)
    arc 5 4 (0.17101 0.469846 0)
    arc 6 11 (0.469846 0.17101 0.1)
    arc 11 10 (0.17101 0.469846 0.1)
	
    arc 15 12 (1.66298 0.68883 0)
    arc 12 14 (0.68883 1.66298 0)
    arc 17 13 (1.66298 0.68883 0.1)
    arc 13 16 (0.68883 1.66298 0.1)
);

boundary
(
    hole
    {
        type patch;
        faces
        (
            (4 5 11 10)
            (5 0 6 11)
        );
    }
	up
    {
        type patch;
        faces
        (
            (2 18 20 8)
			(3 18 9 20)
        );
    }
    right
    {
        type patch;
        faces
        (
            (1 19 7 21)
			(19 2 21 8)
        );
    }
	left
    {
        type symmetryPlane;
        faces
        (
            (3 14 16 9)
			(4 10 14 16)
        );
    }
    down
    {
        type symmetryPlane;
        faces
        (
            (0 15 17 6)
            (15 1 17 7)
        );
    }

    frontAndBack
    {
        type empty;
        faces
        (
            (5 12 14 4)
			(11 13 16 10)
            (0 15 12 5)
            (6 17 13 11)
			(12 15 1 19)
            (13 17 7 21)
			(18 3 12 14)
            (13 20 9 16)
			(12 19 2 18)
            (13 21 8 20)
        );
    }
);

mergePatchPairs
(
);

// ************************************************************************* //
