/*--------------------------------*- C++ -*----------------------------------*\
  =========                |
  \      /  F ield         | OpenFOAM: The Open Source CFD Toolbox
   \    /   O peration     | Website:  https://openfoam.org
    \  /    A nd           | Version:  7
     \/     M anipulation  |
\*---------------------------------------------------------------------------*/
FoamFile
{
  version     2.0;
  format      ascii;
  class       dictionary;
  location    "constant";
  object      transportProperties;
}
// * * * * * * * * * * * * * * * * * * * * * * * * * * * * * * * * * * * * * //
	
eps eps [0 0 0 0 0 0 0]	1;

porousTransport
{
    phaseName theta;
}

species
(
    A
    B
    C
    D
);

A
{

  Dm Dm [0 2 -1 0 0 0 0] 1e-9;

  porousTransport
  {
      Kd Kd [-1 3 0 0 0 0 0] 0;
      rs rs [1 -3 0 0 0 0 0] 0;
      epsTotal epsTotal [0 0 0 0 0 0 0] 1;
      lambda lambda [0 0 -1 0 0 0 0 ] 0;
  }

  dispersionModel alphaDispersion;

  alphaDispersionCoeffs
  {
      tau tau [0 0 0 0 0 0 0] 1;
      alphaL alphaL [0 1 0 0 0 0 0] 0;
      alphaT alphaT [0 1 0 0 0 0 0] 0;
  }
}

B
{

  Dm Dm [0 2 -1 0 0 0 0] 1e-9;

  porousTransport
  {
      Kd Kd [-1 3 0 0 0 0 0] 0;
      rs rs [1 -3 0 0 0 0 0] 0;
      epsTotal epsTotal [0 0 0 0 0 0 0] 1;
      lambda lambda [0 0 -1 0 0 0 0 ] 0;
  }

  dispersionModel alphaDispersion;

  alphaDispersionCoeffs
  {
      tau tau [0 0 0 0 0 0 0] 1;
      alphaL alphaL [0 1 0 0 0 0 0] 0;
      alphaT alphaT [0 1 0 0 0 0 0] 0;
  }
}

C
{
  Dm Dm [0 2 -1 0 0 0 0] 1e-9;

  porousTransport
  {
      Kd Kd [-1 3 0 0 0 0 0] 0;
      rs rs [1 -3 0 0 0 0 0] 0;
      epsTotal epsTotal [0 0 0 0 0 0 0] 1;
      lambda lambda [0 0 -1 0 0 0 0 ] 0;
  }

  dispersionModel alphaDispersion;

  alphaDispersionCoeffs
  {
      tau tau [0 0 0 0 0 0 0] 1;
      alphaL alphaL [0 1 0 0 0 0 0] 0;
      alphaT alphaT [0 1 0 0 0 0 0] 0;
  }
}

D
{

  Dm Dm [0 2 -1 0 0 0 0] 0;

  porousTransport
  {
      Kd Kd [-1 3 0 0 0 0 0] 0;
      rs rs [1 -3 0 0 0 0 0] 0;
      epsTotal epsTotal [0 0 0 0 0 0 0] 1;
      lambda lambda [0 0 -1 0 0 0 0 ] 0;
  }

  dispersionModel alphaDispersion;

  alphaDispersionCoeffs
  {
      tau tau [0 0 0 0 0 0 0] 1;
      alphaL alphaL [0 1 0 0 0 0 0] 0;
      alphaT alphaT [0 1 0 0 0 0 0] 0;
  }
}



// ************************************************************************* //
