/*--------------------------------*- C++ -*----------------------------------*\
  =========                |
  \      /  F ield         | OpenFOAM: The Open Source CFD Toolbox
   \    /   O peration     | Website:  https://openfoam.org
    \  /    A nd           | Version:  7
     \/     M anipulation  |
\*---------------------------------------------------------------------------*/
FoamFile
{
  version     2.0;
  format      ascii;
  class       dictionary;
  location    "constant";
  object      reactions;
}
// * * * * * * * * * * * * * * * * * * * * * * * * * * * * * * * * * * * * * //
	
reactionModel secondOrderv2;

reactions
{
    ABReaction
    {
        reaction  "A^1 + B^1 = C^0";
        kf  kf [0 3 -1 0 -1 0 0] 0.001;
    }
	
	CDReaction
    {
        reaction  "C^1 = D^1";
        kf  kf [0 3 -1 0 -1 0 0] 0.001;
		cs  cs [0 -3 0 0 1 0 0] 0.000006;
    }
	
	CReaction
    {
        reaction  "C^1 = D^0";
		kf  kf [0 0 -1 0 0 0 0] 0.0;
		ks  ks [0 0 -1 0 0 0 0] 0.001;
    }
}

// ************************************************************************* //
